33
temp
C      1.352383  0.374941  1.879740
C      0.373943  1.223923  2.702347
C      1.336536 -1.074389  2.374350
C      2.775450  0.937849  1.986553
O      0.920474  0.292873  0.514484
H      1.748860 -1.133191  3.376993
H      1.927085 -1.699554  1.710886
H      0.321406 -1.458660  2.387696
H      3.159433  0.776498  2.989763
H      2.797101  2.006918  1.785792
H      3.425383  0.429742  1.277408
H      0.553125  1.074299  3.762705
H     -0.647944  0.926915  2.474523
H      0.487181  2.283690  2.483377
C     -0.384925 -0.178707  0.280916
H     -0.535549 -0.114166 -0.795400
H     -1.139805  0.438848  0.775520
H     -0.511323 -1.220184  0.597020
H      1.013485  0.313511 -3.595933
H      2.078619 -1.089375 -3.756999
H      2.932762  1.858828 -4.229040
C      1.722882 -0.323285 -3.073163
H      3.996450  0.452493 -4.410715
C      3.620121  1.194902 -3.711190
H      1.212447 -0.807228 -2.243073
C      2.895769  0.514102 -2.546548
H      4.449807  1.787696 -3.335380
O      2.421439  1.544526 -1.699505
H      4.274277 -1.161556 -2.428485
C      3.856507 -0.400323 -1.774735
H      3.321609 -0.891186 -0.963673
H      4.669311  0.185013 -1.352074
H      1.941500  1.139298 -0.959333
33
temp
C      1.352383  0.374941  1.879740
C      1.425054 -1.024556  2.504980
C      2.752601  0.990436  1.802247
C      0.436152  1.286992  2.705620
O      0.920474  0.292873  0.514484
H      3.130247  1.190537  2.800297
H      2.718708  1.920844  1.242822
H      3.435327  0.315246  1.295951
H      0.906271  1.513667  3.658255
H     -0.521640  0.812069  2.907525
H      0.265271  2.218113  2.169631
H      1.987756 -0.988040  3.432820
H      1.924919 -1.705502  1.818818
H      0.432623 -1.413746  2.722897
C     -0.384925 -0.178707  0.280916
H     -0.535549 -0.114166 -0.795400
H     -1.139805  0.438848  0.775520
H     -0.511323 -1.220184  0.597020
H      3.351358 -0.821761 -0.905710
H      4.185131 -1.224774 -2.412675
H      1.140215 -0.671281 -2.154971
C      3.851332 -0.408132 -1.778051
H      1.970722 -1.094972 -3.662604
C      1.669857 -0.273644 -3.016825
H      4.722013  0.154599 -1.447833
C      2.895769  0.514102 -2.546548
H      0.994601  0.381964 -3.560170
O      2.421439  1.544526 -1.699505
H      3.958751  0.341791 -4.433988
C      3.639900  1.119167 -3.744484
H      4.518538  1.658181 -3.394706
H      2.992279  1.814204 -4.273087
H      1.941500  1.139298 -0.959333
33
temp
C      1.352383  0.374941  1.879740
C      2.743228  1.017626  1.965207
C      0.314103  1.274537  2.556606
C      1.353621 -1.003478  2.553056
O      0.920474  0.292873  0.514484
H      0.495437  1.317798  3.626189
H     -0.684733  0.885275  2.381776
H      0.361967  2.279932  2.150131
H      1.458301 -0.886621  3.627902
H      2.178277 -1.618807  2.199511
H      0.415314 -1.513757  2.346493
H      2.954161  1.311781  2.988844
H      2.776000  1.902616  1.332682
H      3.519713  0.327534  1.641601
C     -0.384925 -0.178707  0.280916
H     -0.535549 -0.114166 -0.795400
H     -1.139805  0.438848  0.775520
H     -0.511323 -1.220184  0.597020
H      1.013485  0.313511 -3.595933
H      2.078619 -1.089375 -3.756999
H      2.932762  1.858828 -4.229040
C      1.722882 -0.323285 -3.073163
H      3.996450  0.452493 -4.410715
C      3.620121  1.194902 -3.711190
H      1.212447 -0.807228 -2.243073
C      2.895769  0.514102 -2.546548
H      4.449807  1.787696 -3.335380
O      2.421439  1.544526 -1.699505
H      4.274277 -1.161556 -2.428485
C      3.856507 -0.400323 -1.774735
H      3.321609 -0.891186 -0.963673
H      4.669311  0.185013 -1.352074
H      1.941500  1.139298 -0.959333
33
temp
C      1.352383  0.374941  1.879740
C      1.425054 -1.024556  2.504980
C      2.752601  0.990436  1.802247
C      0.436152  1.286992  2.705620
O      0.920474  0.292873  0.514484
H      3.130247  1.190537  2.800297
H      2.718708  1.920844  1.242822
H      3.435327  0.315246  1.295951
H      0.906271  1.513667  3.658255
H     -0.521640  0.812069  2.907525
H      0.265271  2.218113  2.169631
H      1.987756 -0.988040  3.432820
H      1.924919 -1.705502  1.818818
H      0.432623 -1.413746  2.722897
C     -0.384925 -0.178707  0.280916
H     -0.535549 -0.114166 -0.795400
H     -1.139805  0.438848  0.775520
H     -0.511323 -1.220184  0.597020
H      4.466411  1.737851 -3.395055
H      4.049407  0.324496 -4.373358
H      4.654838  0.266763 -1.327968
C      3.647426  1.112950 -3.742624
H      4.256975 -1.153812 -2.310762
C      3.843608 -0.348436 -1.708577
H      2.970121  1.722935 -4.336737
C      2.895769  0.514102 -2.546548
H      3.308900 -0.770731 -0.861954
O      2.421439  1.544526 -1.699505
H      2.073407 -1.155289 -3.668559
C      1.719269 -0.324355 -3.063968
H      1.066738  0.298308 -3.673377
H      1.145404 -0.716914 -2.228214
H      1.941500  1.139298 -0.959333
